vdd vdd 0 DC 5  
Vx0 x0 0 DC pwl 10n 0 20n 5 50n 5 60n 0 90n 0 100n 5 130n 5 140n 0 170n 0 180n 5 
Vx1 x1 0 DC pwl 10n 5 20n 5 50n 5 60n 0 90n 0 100n 5 120n 5 130n 0 140n 0 160n 0 170n 5 180n 5 
Vx2 x2 0 DC pwl 10n 0 20n 5 40n 5 50n 0 70n 0 80n 5 100n 5 110n 0 130n 0 140n 5 160n 5 170n 0 190n 0 200n 5 
Vx3 x3 0 DC pwl 10n 0 20n 5 50n 5 60n 0 90n 0 100n 5 130n 5 140n 5 170n 5 180n 5 
Vy0 y0 0 DC pwl 10n 0 20n 5 50n 5 60n 0 90n 0 100n 5 130n 5 140n 0 170n 0 180n 5 
Vy1 y1 0 DC pwl 10n 0 20n 5 100n 5 110n 0 
Vy2 y2 0 DC pwl 10n 5 20n 5 60n 5 70n 0 100n 0 110n 0 
Vy3 y3 0 DC pwl 10n 0 20n 5 100n 5 110n 5 200n 5 
.tran 200n
.include C:\Users\adams\Desktop\Summer\IC\Project\C5_models.txt