vdd vdd 0 DC 5
Vinput input 0 DC pwl 10ns 0 20ns 5 50ns 5 60ns 0
cload output 0 250fF 
.measure tran tf trig v(out) val=4.5 fall=1 td=8ns targ v(out) val=0.5 fall=1
.measure tran tf trig v(out) val=0.5 rise=1 td=50ns targ v(out) val=4.5 fall=1
.tran 0 0.1us
.include C:\Users\adams\Desktop\Summer\IC\Project\C5_models.txt